* File: RCA.pex.netlist.pex
* Created: Fri May 26 23:41:37 2023
* Program "Calibre xRC"
* Version "v2017.4_19.14"
* Nominal Temperature: 27C
* Circuit Temperature: 27C
* 
.subckt PM_RCA%GND 214 367 372 377 382 387 392 393 397 402 407 408 412 417 422
+ 427 432 433 437 442 447 448 452 457 462 467 472 477 482 483 487 492 497 498
+ 502 507 512 517 522 523 527 532 537 538 542 547 552 557 562 693
c0 703 0 0.175856f
c1 700 0 0.18616f
c2 637 0 0.380044f
c3 634 0 0.380044f
c4 631 0 0.262946f
c5 602 0 0.380056f
c6 595 0 0.380056f
c7 565 0 0.190536f
c8 562 0 0.00135113f
c9 560 0 0.190536f
c10 557 0 0.00135113f
c11 555 0 0.16657f
c12 550 0 0.16657f
c13 545 0 0.262848f
c14 544 0 0.00105578f
c15 541 0 0.380056f
c16 535 0 0.0793494f
c17 534 0 0.00112157f
c18 530 0 0.116034f
c19 529 0 0.00112157f
c20 526 0 0.380056f
c21 520 0 0.304263f
c22 519 0 0.00105578f
c23 515 0 0.148967f
c24 512 0 0.0121229f
c25 510 0 0.148967f
c26 507 0 0.0121229f
c27 504 0 0.00105578f
c28 494 0 4.83026e-19
c29 489 0 4.83026e-19
c30 479 0 0.00105578f
c31 475 0 0.187141f
c32 474 0 8.24193e-19
c33 470 0 0.187167f
c34 469 0 8.26106e-19
c35 465 0 0.177074f
c36 460 0 0.187283f
c37 457 0 0.00413667f
c38 455 0 0.262946f
c39 454 0 0.00105578f
c40 451 0 0.380044f
c41 444 0 4.83026e-19
c42 439 0 4.83026e-19
c43 436 0 0.380044f
c44 430 0 0.262946f
c45 429 0 0.00105578f
c46 425 0 0.149819f
c47 424 0 0.0121229f
c48 420 0 0.148967f
c49 419 0 0.0121229f
c50 414 0 0.00105578f
c51 404 0 0.00112157f
c52 399 0 0.00112157f
c53 389 0 0.00105578f
c54 385 0 0.16657f
c55 380 0 0.16657f
c56 375 0 0.190536f
c57 374 0 0.00135113f
c58 370 0 0.190536f
c59 369 0 0.00135113f
c60 364 0 0.0158531f
c61 352 0 0.0158531f
c62 338 0 0.227215f
c63 329 0 0.325304f
c64 325 0 0.325304f
c65 313 0 0.227215f
c66 309 0 0.0204939f
c67 308 0 0.00258115f
c68 299 0 0.0204939f
c69 298 0 0.00234655f
c70 289 0 0.160012f
c71 288 0 0.00160888f
c72 279 0 0.16969f
c73 278 0 0.00225972f
c74 266 0 0.227215f
c75 257 0 0.325304f
c76 253 0 0.325304f
c77 241 0 0.227215f
c78 236 0 0.0253432f
c79 229 0 0.429388f
c80 224 0 0.0253432f
c81 217 0 0.429388f
c82 213 0 0.131944f
c83 212 0 0.131944f
c84 211 0 0.0187583f
c85 210 0 0.177284f
c86 207 0 0.0187583f
c87 206 0 0.177284f
c88 203 0 0.0365961f
c89 198 0 0.0541079f
c90 197 0 0.0448483f
c91 193 0 0.0541079f
c92 192 0 0.0448483f
c93 190 0 0.0200152f
c94 188 0 0.0200152f
c95 187 0 0.0413629f
c96 186 0 0.262946f
c97 183 0 0.0343932f
c98 182 0 0.0343932f
c99 180 0 0.0915952f
c100 179 0 0.541881f
c101 178 0 0.0239253f
c102 173 0 0.541881f
c103 172 0 0.0239253f
c104 169 0 0.0204939f
c105 166 0 0.0204939f
c106 163 0 0.0413629f
c107 162 0 0.262848f
c108 158 0 0.0915952f
c109 156 0 0.0239253f
c110 153 0 0.0343932f
c111 152 0 0.0343932f
c112 148 0 0.0239253f
c113 145 0 0.0413629f
c114 144 0 0.262848f
c115 140 0 0.0741231f
c116 138 0 0.0741231f
c117 137 0 0.0365961f
c118 136 0 0.0793494f
c119 135 0 0.0365961f
c120 134 0 0.0793494f
c121 130 0 0.177284f
c122 129 0 0.0448483f
c123 125 0 0.177284f
c124 124 0 0.0448483f
c125 123 0 0.0187583f
c126 122 0 0.0777815f
c127 119 0 0.0187583f
c128 118 0 0.0777815f
c129 111 0 0.118901f
c130 106 0 0.118901f
c131 103 0 0.08494f
c132 101 0 0.08494f
c133 98 0 0.0786001f
c134 96 0 0.0786001f
c135 93 0 0.0915952f
c136 90 0 0.171827f
c137 88 0 0.171827f
c138 87 0 0.208754f
c139 85 0 0.0963987f
c140 84 0 0.112355f
c141 82 0 0.177078f
c142 80 0 0.177076f
c143 79 0 0.0326948f
c144 78 0 0.144338f
c145 77 0 0.032702f
c146 76 0 0.144364f
c147 75 0 0.208754f
c148 73 0 0.0963987f
c149 72 0 0.112355f
c150 70 0 0.170914f
c151 68 0 0.171827f
c152 65 0 0.0915952f
c153 62 0 0.0786001f
c154 60 0 0.0786001f
c155 59 0 0.08494f
c156 57 0 0.08494f
c157 41 0 0.237261f
c158 40 0 0.237261f
c159 39 0 0.0888711f
c160 38 0 0.0888711f
c161 37 0 0.351898f
c162 36 0 0.351898f
c163 35 0 0.380724f
c164 34 0 0.395936f
c165 33 0 0.628252f
c166 32 0 0.630752f
c167 31 0 1.19178f
c168 29 0 0.301281f
c169 27 0 0.301281f
c170 25 0 0.116551f
c171 24 0 0.120832f
c172 23 0 0.0890171f
c173 22 0 0.12091f
c174 13 0 0.0182324f
c175 12 0 0.102599f
c176 11 0 0.0182324f
c177 10 0 0.102677f
c178 9 0 0.301281f
c179 7 0 0.301281f
r180 665 666 0.00569285
r181 631 665 0.0334444
r182 564 565 16.3327
r183 562 564 4.59
r184 559 560 16.3327
r185 557 559 4.59
r186 554 555 16.3327
r187 552 554 4.59
r188 549 550 16.3327
r189 547 549 4.59
r190 544 545 16.3327
r191 542 544 4.59
r192 541 648 0.287
r193 540 541 16.3327
r194 538 540 4.59
r195 537 540 4.59
r196 534 535 16.3327
r197 532 534 4.59
r198 530 674 0.0995556
r199 529 530 16.3327
r200 527 529 4.59
r201 525 526 16.3327
r202 523 525 4.572
r203 522 525 4.608
r204 520 665 0.320444
r205 519 520 16.3327
r206 517 519 4.572
r207 514 515 16.3327
r208 512 514 4.59
r209 509 510 16.3327
r210 507 509 4.59
r211 504 505 16.3327
r212 502 504 4.59
r213 501 637 0.287
r214 500 501 16.3327
r215 498 500 4.59
r216 497 500 4.59
r217 494 495 16.3327
r218 492 494 4.59
r219 489 490 16.3327
r220 487 489 4.59
r221 486 634 0.287
r222 485 486 16.3327
r223 483 485 4.572
r224 482 485 4.608
r225 480 631 0.287
r226 479 480 16.3327
r227 477 479 4.572
r228 475 628 0.179667
r229 474 475 16.3327
r230 472 474 4.59
r231 470 625 0.179667
r232 469 470 16.3327
r233 467 469 4.59
r234 464 465 16.3327
r235 462 464 4.59
r236 459 460 16.3327
r237 457 459 4.59
r238 454 455 16.3327
r239 452 454 4.59
r240 451 616 0.287
r241 450 451 16.3327
r242 448 450 4.59
r243 447 450 4.59
r244 444 445 16.3327
r245 442 444 4.59
r246 439 440 16.3327
r247 437 439 4.59
r248 436 613 0.287
r249 435 436 16.3327
r250 433 435 4.572
r251 432 435 4.608
r252 429 430 16.3327
r253 427 429 4.572
r254 424 425 16.3327
r255 422 424 4.59
r256 419 420 16.3327
r257 417 419 4.59
r258 414 415 16.3327
r259 412 414 4.59
r260 411 602 0.287
r261 410 411 16.3327
r262 408 410 4.59
r263 407 410 4.59
r264 404 405 16.3327
r265 402 404 4.59
r266 399 400 16.3327
r267 397 399 4.59
r268 396 595 0.287
r269 395 396 16.3327
r270 393 395 4.572
r271 392 395 4.608
r272 389 390 16.3327
r273 387 389 4.572
r274 384 385 16.3327
r275 382 384 4.59
r276 379 380 16.3327
r277 377 379 4.59
r278 374 375 16.3327
r279 372 374 4.59
r280 369 370 16.3327
r281 367 369 4.59
r282 364 365 5.44423
r283 356 357 5.44423
r284 352 353 5.44423
r285 344 345 5.44423
r286 340 341 8.16635
r287 338 341 0.156279
r288 338 711 0.116395
r289 337 340 18.383
r290 337 338 5.44423
r291 333 709 0.0366279
r292 333 711 0.0366279
r293 333 637 0.0334444
r294 333 648 0.0334444
r295 332 333 16.3327
r296 329 709 0.122907
r297 328 332 18.383
r298 328 329 5.44423
r299 325 671 0.12307
r300 324 325 5.44423
r301 322 526 0.320444
r302 322 671 0.00569285
r303 322 634 0.0334444
r304 322 670 0.00569285
r305 321 324 18.383
r306 321 322 16.3327
r307 317 670 0.116233
r308 316 317 8.16635
r309 313 317 0.156279
r310 313 666 0.0937674
r311 312 316 18.383
r312 312 313 5.44423
r313 309 628 0.00676689
r314 309 703 0.030779
r315 308 309 16.3327
r316 303 703 0.147326
r317 302 303 5.44423
r318 299 625 0.00676689
r319 299 700 0.030779
r320 298 299 16.3327
r321 293 700 0.147326
r322 292 293 5.44423
r323 288 289 16.3327
r324 283 289 0.156279
r325 282 283 5.44423
r326 278 279 16.3327
r327 273 279 0.156279
r328 272 273 5.44423
r329 268 693 8.16635
r330 266 693 0.156279
r331 266 690 0.116395
r332 265 268 18.383
r333 265 266 5.44423
r334 261 688 0.0366279
r335 261 690 0.0366279
r336 261 602 0.0334444
r337 261 616 0.0334444
r338 260 261 16.3327
r339 257 688 0.122907
r340 256 260 18.383
r341 256 257 5.44423
r342 253 686 0.12307
r343 252 253 5.44423
r344 250 683 0.0366279
r345 250 686 0.0366279
r346 250 595 0.0334444
r347 250 613 0.0334444
r348 249 252 18.383
r349 249 250 16.3327
r350 245 683 0.116233
r351 244 245 8.16635
r352 241 245 0.156279
r353 240 244 18.383
r354 240 241 5.44423
r355 236 237 5.44423
r356 228 229 5.44423
r357 224 225 5.44423
r358 216 217 5.44423
r359 214 364 41.9362
r360 214 356 41.9362
r361 214 361 5.44423
r362 214 352 41.9362
r363 214 344 41.9362
r364 214 349 5.44423
r365 214 337 9.19149
r366 214 332 9.19149
r367 214 321 9.19149
r368 214 316 9.19149
r369 214 308 13.8447
r370 214 302 4.5383
r371 214 298 13.8447
r372 214 292 4.5383
r373 214 288 13.7489
r374 214 282 4.63404
r375 214 278 13.7489
r376 214 272 4.63404
r377 214 265 9.19149
r378 214 260 9.19149
r379 214 249 9.19149
r380 214 244 9.19149
r381 214 236 41.9936
r382 214 234 5.44423
r383 214 228 41.8787
r384 214 224 41.9936
r385 214 222 5.44423
r386 214 216 41.8787
r387 213 365 0.0781395
r388 212 353 0.0781395
r389 210 361 0.208372
r390 210 211 0.030779
r391 209 365 0.0748837
r392 209 211 0.030779
r393 208 565 0.101889
r394 208 211 0.00676689
r395 206 349 0.208372
r396 206 207 0.030779
r397 205 353 0.0748837
r398 205 207 0.030779
r399 204 560 0.101889
r400 204 207 0.00676689
r401 202 535 0.0645556
r402 202 203 0.0296412
r403 201 555 0.101889
r404 200 201 0.00250939
r405 199 200 0.13593
r406 198 357 0.0724419
r407 198 199 0.0366279
r408 197 361 0.0748837
r409 197 200 0.0366279
r410 196 550 0.101889
r411 195 196 0.00250939
r412 194 195 0.13593
r413 193 345 0.0724419
r414 193 194 0.0366279
r415 192 349 0.0748837
r416 192 195 0.0366279
r417 191 515 0.101889
r418 190 357 0.0748837
r419 190 191 0.0391373
r420 189 510 0.101889
r421 188 345 0.0748837
r422 188 189 0.0391373
r423 186 505 0.287
r424 186 187 0.0285359
r425 185 545 0.287
r426 185 187 0.0285359
r427 184 341 0.0936047
r428 184 187 0.00864542
r429 181 329 0.251512
r430 178 181 0.035
r431 178 180 0.035
r432 178 179 8
r433 174 325 0.251349
r434 172 175 0.0348444
r435 172 174 0.0351556
r436 172 173 8
r437 168 283 0.069186
r438 168 169 0.030779
r439 167 465 0.179667
r440 167 169 0.00676689
r441 165 273 0.069186
r442 165 166 0.030779
r443 164 460 0.179667
r444 164 166 0.00676689
r445 162 415 0.287
r446 162 163 0.0285359
r447 161 455 0.287
r448 161 163 0.0285359
r449 160 693 0.0936047
r450 160 163 0.00864542
r451 159 257 0.251512
r452 156 159 0.035
r453 156 158 0.035
r454 156 157 8
r455 150 253 0.251349
r456 148 151 0.0348444
r457 148 150 0.0351556
r458 148 149 8
r459 144 390 0.287
r460 144 145 0.0285359
r461 143 430 0.287
r462 143 145 0.0285359
r463 142 241 0.0937674
r464 142 145 0.00864542
r465 141 425 0.101889
r466 140 237 0.0748837
r467 140 141 0.0391373
r468 139 420 0.101889
r469 138 225 0.0748837
r470 138 139 0.0391373
r471 136 405 0.0645556
r472 136 137 0.0296412
r473 134 400 0.0645556
r474 134 135 0.0296412
r475 132 385 0.101889
r476 131 133 0.13593
r477 131 132 0.00250939
r478 130 234 0.0748837
r479 130 131 0.0366279
r480 129 237 0.0724419
r481 129 133 0.0366279
r482 127 380 0.101889
r483 126 128 0.13593
r484 126 127 0.00250939
r485 125 222 0.0748837
r486 125 126 0.0366279
r487 124 225 0.0724419
r488 124 128 0.0366279
r489 122 229 0.0748837
r490 122 123 0.030779
r491 121 234 0.208372
r492 121 123 0.030779
r493 120 375 0.101889
r494 120 123 0.00676689
r495 118 217 0.0748837
r496 118 119 0.030779
r497 117 222 0.208372
r498 117 119 0.030779
r499 116 370 0.101889
r500 116 119 0.00676689
r501 111 112 8
r502 109 213 0.0391373
r503 109 111 0.0847778
r504 106 107 8
r505 104 212 0.0391373
r506 104 106 0.0847778
r507 103 203 0.00770322
r508 102 199 0.00250939
r509 102 103 0.157111
r510 101 194 0.00250939
r511 100 674 0.00411102
r512 100 101 0.157111
r513 99 183 0.0285359
r514 98 203 0.0296412
r515 98 99 0.152444
r516 97 182 0.0285359
r517 96 674 0.035
r518 96 97 0.152444
r519 94 183 0.00864542
r520 94 180 0.144884
r521 93 182 0.00864542
r522 93 175 0.144884
r523 91 495 0.0191338
r524 90 183 0.0285359
r525 90 91 0.253556
r526 89 490 0.0191338
r527 88 182 0.0285359
r528 88 89 0.253556
r529 87 495 0.0200035
r530 86 87 0.157907
r531 84 490 0.0200035
r532 84 85 0.157907
r533 83 309 0.030779
r534 82 86 0.039111
r535 82 83 0.226279
r536 81 299 0.030779
r537 80 85 0.039111
r538 80 81 0.226279
r539 78 169 0.030779
r540 78 79 0.226279
r541 76 166 0.030779
r542 76 77 0.226279
r543 75 445 0.0200035
r544 74 79 0.039111
r545 74 75 0.157907
r546 73 77 0.039111
r547 72 440 0.0200035
r548 72 73 0.157907
r549 71 153 0.0285359
r550 70 445 0.0191338
r551 70 71 0.253556
r552 69 152 0.0285359
r553 68 440 0.0191338
r554 68 69 0.253556
r555 66 153 0.00864542
r556 66 158 0.144884
r557 65 152 0.00864542
r558 65 151 0.144884
r559 63 137 0.0296412
r560 62 153 0.0285359
r561 62 63 0.152444
r562 61 135 0.0296412
r563 60 152 0.0285359
r564 60 61 0.152444
r565 59 137 0.00770322
r566 58 133 0.00250939
r567 58 59 0.157111
r568 57 128 0.00250939
r569 56 135 0.00770322
r570 56 57 0.157111
r571 41 112 0.15015
r572 40 107 0.15015
r573 39 179 0.66105
r574 38 173 0.66105
r575 36 37 0.0568104
r576 34 35 0.0790679
r577 33 157 0.66105
r578 32 149 0.66105
r579 31 41 0.0363174
r580 30 40 0.0363174
r581 30 31 1.6809
r582 28 39 0.0363174
r583 28 29 0.3757
r584 27 38 0.0363174
r585 26 27 0.3757
r586 25 37 0.0305011
r587 24 29 0.0363174
r588 24 25 0.1885
r589 23 35 0.0287228
r590 22 26 0.0363174
r591 22 23 0.1885
r592 12 36 0.0305011
r593 12 13 0.1885
r594 10 34 0.0287228
r595 10 11 0.1885
r596 9 13 0.0363174
r597 8 33 0.0363174
r598 8 9 0.3757
r599 7 32 0.0363174
r600 6 11 0.0363174
r601 6 7 0.3757
.ends

.subckt PM_RCA%B3 16 24 26 31 34 38 57 61 65
c0 88 0 0.259619f
c1 84 0 0.0784658f
c2 81 0 0.219184f
c3 76 0 0.269112f
c4 74 0 0.0419218f
c5 73 0 0.034052f
c6 72 0 0.0418855f
c7 71 0 0.0959996f
c8 69 0 0.163699f
c9 65 0 0.1496f
c10 61 0 0.138194f
c11 57 0 0.172015f
c12 53 0 0.0456111f
c13 52 0 0.182523f
c14 48 0 0.142213f
c15 45 0 0.0776891f
c16 43 0 0.154896f
c17 42 0 0.0778857f
c18 38 0 0.213343f
c19 34 0 0.0921385f
c20 29 0 0.0449243f
c21 28 0 0.226303f
c22 26 0 0.577335f
c23 19 0 0.08867f
c24 14 0 0.0967106f
c25 7 0 0.0545024f
c26 6 0 0.109902f
c27 5 0 0.117307f
c28 4 0 0.0721788f
r29 80 81 8
r30 76 80 0.3029
r31 76 77 8
r32 69 77 0.0451111
r33 68 71 8.07022
r34 68 69 13.2552
r35 63 73 7.73958
r36 63 65 54.75
r37 59 74 7.73958
r38 59 61 36
r39 55 74 7.73958
r40 55 57 57.25
r41 53 88 8
r42 52 53 13.2552
r43 50 73 1.29764
r44 50 52 17.9043
r45 48 84 8
r46 47 48 13.2552
r47 45 74 1.29764
r48 45 47 4.88298
r49 42 43 13.2552
r50 40 72 1.29764
r51 40 42 4.88298
r52 36 72 7.73958
r53 36 38 70.25
r54 32 72 7.73958
r55 32 34 23
r56 29 31 34.75
r57 28 73 7.73958
r58 28 31 88.5
r59 24 26 166.75
r60 24 71 34.75
r61 20 81 0.0653333
r62 19 20 13.2552
r63 17 29 6.45644
r64 17 19 5.05532
r65 14 43 0.0715556
r66 14 16 0.0195555
r67 13 48 0.091
r68 13 16 0.0195555
r69 8 88 0.169
r70 7 84 0.09165
r71 5 8 0.0363174
r72 5 6 0.091
r73 4 7 0.0363174
r74 3 6 0.0363174
r75 3 4 0.1261
.ends

.subckt PM_RCA%B0 23 26 28 32 36 55 59 63 100
c0 86 0 0.259619f
c1 82 0 0.0784658f
c2 79 0 0.163699f
c3 74 0 0.269112f
c4 72 0 0.0419218f
c5 71 0 0.034052f
c6 70 0 0.0418855f
c7 69 0 0.0959996f
c8 63 0 0.1496f
c9 59 0 0.172015f
c10 55 0 0.138194f
c11 51 0 0.0456111f
c12 50 0 0.182523f
c13 46 0 0.142213f
c14 43 0 0.0776891f
c15 41 0 0.154896f
c16 40 0 0.0778857f
c17 36 0 0.0921385f
c18 32 0 0.213343f
c19 28 0 0.577335f
c20 21 0 0.0449243f
c21 20 0 0.226303f
c22 18 0 0.219184f
c23 17 0 0.08867f
c24 13 0 0.0967106f
c25 7 0 0.0545024f
c26 6 0 0.109902f
c27 5 0 0.117307f
c28 4 0 0.0721788f
r29 78 79 8
r30 74 78 0.3029
r31 74 75 8
r32 67 79 0.0451111
r33 66 69 8.07022
r34 66 67 13.2552
r35 61 71 7.73958
r36 61 63 54.75
r37 57 72 7.73958
r38 57 59 57.25
r39 53 72 7.73958
r40 53 55 36
r41 51 86 8
r42 50 51 13.2552
r43 48 71 1.29764
r44 48 50 17.9043
r45 46 100 0.0878889
r46 46 82 8
r47 45 46 13.2552
r48 43 72 1.29764
r49 43 45 4.88298
r50 40 41 13.2552
r51 38 70 1.29764
r52 38 40 4.88298
r53 34 70 7.73958
r54 34 36 23
r55 30 70 7.73958
r56 30 32 70.25
r57 26 28 166.75
r58 26 69 34.75
r59 21 23 34.75
r60 20 71 7.73958
r61 20 23 88.5
r62 18 75 0.0653333
r63 17 18 13.2552
r64 15 21 6.45644
r65 15 17 5.07447
r66 14 41 0.0715556
r67 13 100 0.00311111
r68 13 14 0.039111
r69 8 86 0.169
r70 7 82 0.09165
r71 5 8 0.0363174
r72 5 6 0.091
r73 4 6 0.0363174
r74 3 7 0.0363174
r75 3 4 0.1261
.ends

.subckt PM_RCA%XADDER4/TS 19 20 24 25 32 36 48 54
c0 77 0 0.582719f
c1 74 0 0.232212f
c2 69 0 0.349546f
c3 65 0 0.0362508f
c4 60 0 0.102847f
c5 58 0 0.167083f
c6 55 0 0.129902f
c7 52 0 0.152312f
c8 51 0 0.0194577f
c9 48 0 0.126307f
c10 44 0 0.0599436f
c11 43 0 0.0854598f
c12 40 0 0.0211531f
c13 39 0 0.154434f
c14 38 0 0.0176337f
c15 33 0 0.322801f
c16 29 0 0.341288f
c17 28 0 0.318052f
c18 18 0 0.096166f
c19 17 0 0.0669558f
c20 16 0 0.473267f
c21 15 0 0.0317966f
c22 12 0 0.289311f
c23 11 0 0.301497f
c24 3 0 0.0868828f
r25 73 74 8
r26 69 73 0.3419
r27 69 70 8
r28 61 74 0.0824444
r29 60 63 2.75745
r30 60 61 13.2552
r31 58 70 0.0622222
r32 57 58 13.2552
r33 55 57 8.41791
r34 52 54 30
r35 50 52 5.02856
r36 50 51 8.75
r37 46 65 7.73958
r38 46 48 44
r39 44 77 8
r40 43 44 13.2552
r41 41 65 1.29764
r42 41 43 5.4383
r43 39 51 5.02856
r44 39 40 50.75
r45 38 40 5.02856
r46 37 38 8.75
r47 34 63 4.73303
r48 34 36 57.25
r49 33 37 5.02856
r50 33 36 68
r51 30 55 4.02967
r52 30 32 57.25
r53 29 65 7.73958
r54 29 32 99.25
r55 27 28 16.3327
r56 25 27 4.572
r57 24 27 4.608
r58 22 23 8.16635
r59 20 22 2.286
r60 19 22 2.304
r61 18 28 0.179667
r62 16 23 0.306444
r63 16 17 0.00770322
r64 15 18 0.039111
r65 14 17 0.0296412
r66 14 15 0.0373333
r67 11 12 8
r68 9 17 0.0296412
r69 9 11 0.2044
r70 4 12 0.21203
r71 3 77 0.9711
r72 3 4 0.0363174
.ends

.subckt PM_RCA%XADDER1/TS 19 20 24 25 32 36 48 54
c0 77 0 0.582719f
c1 74 0 0.167083f
c2 69 0 0.349546f
c3 65 0 0.0362508f
c4 62 0 0.129902f
c5 59 0 0.232212f
c6 55 0 0.102847f
c7 52 0 0.152312f
c8 51 0 0.0194577f
c9 48 0 0.126307f
c10 44 0 0.0599436f
c11 43 0 0.0854598f
c12 40 0 0.0211531f
c13 39 0 0.154434f
c14 38 0 0.0176337f
c15 33 0 0.341288f
c16 29 0 0.322801f
c17 28 0 0.318052f
c18 18 0 0.0669558f
c19 17 0 0.473267f
c20 16 0 0.096166f
c21 14 0 0.289311f
c22 13 0 0.301497f
c23 10 0 0.0317966f
c24 3 0 0.0868828f
r25 73 74 8
r26 69 73 0.3419
r27 69 70 8
r28 63 74 0.0622222
r29 62 64 8.39552
r30 62 63 13.2552
r31 59 70 0.0824444
r32 58 59 13.2552
r33 55 58 2.7766
r34 52 54 30
r35 51 52 5.02856
r36 50 51 8.75
r37 46 65 7.73958
r38 46 48 44
r39 44 77 8
r40 43 44 13.2552
r41 41 65 1.29764
r42 41 43 5.45745
r43 39 50 5.02856
r44 39 40 50.75
r45 37 40 5.02856
r46 37 38 8.75
r47 34 64 4.02967
r48 34 36 57.25
r49 33 65 7.73958
r50 33 36 99.25
r51 30 55 4.73303
r52 30 32 57.25
r53 29 38 5.02856
r54 29 32 68
r55 27 28 16.3327
r56 25 27 4.59
r57 24 27 4.59
r58 22 23 8.16635
r59 20 22 2.295
r60 19 22 2.295
r61 17 23 0.306444
r62 17 18 0.00770322
r63 16 28 0.179667
r64 13 14 8
r65 11 18 0.0296412
r66 11 13 0.204556
r67 10 18 0.0296412
r68 9 16 0.039111
r69 9 10 0.0373333
r70 4 14 0.2119
r71 3 77 0.9711
r72 3 4 0.0363174
.ends

.subckt PM_RCA%C3 54 59 60 64 71 75 89 93 97 100 103 113
c0 143 0 0.221576f
c1 138 0 0.524554f
c2 134 0 0.18235f
c3 128 0 0.0385192f
c4 125 0 0.583042f
c5 124 0 0.168145f
c6 123 0 0.09853f
c7 121 0 0.0360906f
c8 120 0 0.0419218f
c9 119 0 0.0418638f
c10 116 0 0.0886502f
c11 110 0 0.364432f
c12 108 0 0.0792102f
c13 107 0 0.0971709f
c14 101 0 0.0848339f
c15 93 0 0.13286f
c16 89 0 0.180434f
c17 85 0 0.142024f
c18 82 0 0.0791121f
c19 80 0 0.166025f
c20 79 0 0.0798171f
c21 75 0 0.216983f
c22 71 0 0.0930932f
c23 67 0 0.194303f
c24 64 0 3.8873e-19
c25 63 0 0.29008f
c26 59 0 0.0314748f
c27 57 0 0.192212f
c28 54 0 5.82206e-19
c29 51 0 0.124817f
c30 47 0 0.108049f
c31 45 0 0.285921f
c32 43 0 0.13831f
c33 40 0 0.166422f
c34 38 0 0.770406f
c35 33 0 0.257699f
c36 25 0 0.0938648f
c37 21 0 0.197916f
c38 20 0 0.0772418f
c39 19 0 0.135122f
c40 18 0 0.0255123f
c41 17 0 0.336309f
c42 15 0 0.0862729f
c43 14 0 0.285068f
c44 13 0 0.172616f
c45 10 0 0.171446f
c46 8 0 0.365124f
c47 7 0 0.438887f
c48 5 0 0.123906f
r49 142 143 8
r50 138 142 0.3029
r51 138 139 8
r52 124 139 0.0451111
r53 123 125 8.07022
r54 123 124 13.2552
r55 117 143 0.0653333
r56 116 117 13.2552
r57 114 116 5.05532
r58 111 121 7.73958
r59 111 113 119.25
r60 110 114 6.45644
r61 110 113 34.75
r62 108 134 8
r63 107 108 13.2552
r64 105 121 1.29764
r65 105 107 6.2234
r66 101 121 7.73958
r67 101 103 24
r68 100 125 34.75
r69 97 100 166.75
r70 91 120 7.73958
r71 91 93 36
r72 87 120 7.73958
r73 87 89 57.25
r74 85 128 8
r75 84 85 13.2552
r76 82 120 1.29764
r77 82 84 4.88298
r78 79 80 13.2552
r79 77 119 1.29764
r80 77 79 4.88298
r81 73 119 7.73958
r82 73 75 70.25
r83 69 119 7.73958
r84 69 71 23
r85 66 67 16.3327
r86 64 66 4.59
r87 62 63 8.16635
r88 60 62 2.295
r89 59 62 2.295
r90 56 57 8.16635
r91 54 56 2.295
r92 53 63 0.0723333
r93 51 52 0.101111
r94 50 57 0.0723333
r95 50 52 0.035
r96 49 67 0.129889
r97 49 51 0.035
r98 48 80 0.0715556
r99 47 85 0.091
r100 47 48 0.039111
r101 46 52 0.00411102
r102 45 53 0.039111
r103 45 46 0.144667
r104 42 43 8
r105 40 51 0.00411102
r106 40 42 0.152444
r107 37 38 8
r108 33 37 0.249667
r109 33 34 8
r110 25 43 0.1014
r111 21 23 0.09295
r112 20 134 0.143
r113 19 38 0.42705
r114 18 128 0.05395
r115 17 25 0.0363174
r116 16 17 0.2626
r117 14 16 0.0363174
r118 14 15 0.21125
r119 12 15 0.0363174
r120 12 13 0.15405
r121 11 21 0.00381737
r122 10 13 0.0363174
r123 10 11 0.08255
r124 9 34 0.0181587
r125 8 23 0.00381737
r126 8 9 0.2574
r127 7 34 0.0181587
r128 6 20 0.0363174
r129 6 7 0.4095
r130 5 19 0.0363174
r131 4 18 0.0363174
r132 4 5 0.14625
.ends

.subckt PM_RCA%C0 27 31 45 49 53 57 60 69 106
c0 106 0 0.142024f
c1 101 0 0.168145f
c2 96 0 0.531287f
c3 92 0 0.18235f
c4 84 0 0.0389319f
c5 81 0 0.583042f
c6 79 0 0.09853f
c7 77 0 0.0360906f
c8 76 0 0.0419218f
c9 75 0 0.0418638f
c10 73 0 0.221577f
c11 72 0 0.0886502f
c12 66 0 0.364432f
c13 64 0 0.0792102f
c14 63 0 0.0971709f
c15 51 0 0.0848339f
c16 49 0 0.180434f
c17 45 0 0.13286f
c18 38 0 0.0791121f
c19 36 0 0.166025f
c20 35 0 0.0798171f
c21 31 0 0.0930932f
c22 27 0 0.216983f
c23 23 0 0.108049f
c24 21 0 0.338046f
c25 17 0 0.770406f
c26 16 0 0.380891f
c27 8 0 0.0756253f
c28 7 0 0.0255123f
c29 6 0 0.135122f
c30 5 0 0.123906f
r31 100 101 8
r32 96 100 0.3029
r33 96 97 8
r34 84 106 8
r35 80 101 0.0451111
r36 79 81 8.07022
r37 79 80 13.2552
r38 73 97 0.0653333
r39 72 73 13.2552
r40 70 72 5.07447
r41 67 77 7.73958
r42 67 69 119.25
r43 66 70 6.45644
r44 66 69 34.75
r45 64 92 8
r46 63 64 13.2552
r47 61 77 1.29764
r48 61 63 6.2234
r49 60 81 34.75
r50 57 60 166.75
r51 51 77 7.73958
r52 51 53 24
r53 47 76 7.73958
r54 47 49 57.25
r55 43 76 7.73958
r56 43 45 36
r57 40 106 13.2552
r58 38 76 1.29764
r59 38 40 4.88298
r60 35 36 13.2552
r61 33 75 1.29764
r62 33 35 4.88298
r63 29 75 7.73958
r64 29 31 23
r65 25 75 7.73958
r66 25 27 70.25
r67 24 36 0.0715556
r68 23 106 0.0785556
r69 23 24 0.039111
r70 20 21 8
r71 16 20 0.406778
r72 16 17 8
r73 9 21 0.3107
r74 8 92 0.143
r75 8 9 0.0363174
r76 7 84 0.05395
r77 6 17 0.42705
r78 5 7 0.0363174
r79 4 6 0.0363174
r80 4 5 0.14625
.ends

.subckt PM_RCA%XADDER4/ACO 11 12 16 28 32
c0 39 0 0.959025f
c1 33 0 0.0418479f
c2 30 0 0.136176f
c3 28 0 0.224723f
c4 24 0 0.101336f
c5 21 0 0.0869332f
c6 15 0 0.412306f
c7 11 0 9.15471e-19
c8 8 0 0.279395f
c9 5 0 0.0232543f
c10 4 0 0.122541f
r11 35 39 0.60385
r12 30 33 7.73958
r13 30 32 34.75
r14 26 33 7.73958
r15 26 28 73.75
r16 24 39 8
r17 23 24 13.2552
r18 21 33 1.29764
r19 21 23 4.88298
r20 18 19 16.3327
r21 16 18 4.59
r22 15 35 8
r23 14 15 8.16635
r24 12 14 2.295
r25 11 14 2.295
r26 9 15 0.183556
r27 8 9 0.00411102
r28 6 8 0.108889
r29 5 6 0.00411102
r30 4 19 0.0344639
r31 4 5 0.0373333
.ends

.subckt PM_RCA%XADDER1/ACO 11 12 16 28 31
c0 39 0 0.737338f
c1 33 0 0.0418479f
c2 31 0 0.216156f
c3 26 0 0.138693f
c4 24 0 0.0991726f
c5 21 0 0.0833861f
c6 15 0 0.413228f
c7 11 0 9.15471e-19
c8 8 0 0.279419f
c9 5 0 0.14698f
r10 35 39 0.60385
r11 35 36 8
r12 29 33 7.73958
r13 29 31 73.75
r14 26 33 7.73958
r15 26 28 34.75
r16 24 39 8
r17 23 24 13.2552
r18 21 33 1.29764
r19 21 23 4.88298
r20 18 19 16.3327
r21 16 18 4.59
r22 15 36 0.063
r23 14 15 8.16635
r24 12 14 2.295
r25 11 14 2.295
r26 9 36 0.195222
r27 8 9 0.00411102
r28 6 8 0.108889
r29 5 19 0.0344639
r30 4 6 0.00411102
r31 4 5 0.0373333
.ends

.subckt PM_RCA%A3 20 24 32 36 50 56 59 63 104
c0 104 0 0.132226f
c1 100 0 0.395308f
c2 97 0 0.231686f
c3 92 0 0.37263f
c4 88 0 0.64711f
c5 84 0 0.269496f
c6 82 0 0.0418638f
c7 77 0 0.100783f
c8 75 0 0.169403f
c9 72 0 0.129939f
c10 71 0 0.0315578f
c11 70 0 0.0419218f
c12 68 0 0.0916898f
c13 67 0 0.0844285f
c14 63 0 0.236974f
c15 59 0 0.094672f
c16 54 0 0.0229677f
c17 53 0 0.293849f
c18 52 0 0.0176337f
c19 47 0 0.352508f
c20 45 0 0.0616423f
c21 44 0 0.088574f
c22 41 0 0.021729f
c23 40 0 0.144019f
c24 39 0 0.0193089f
c25 36 0 0.141984f
c26 32 0 0.191786f
c27 25 0 0.0869126f
c28 22 0 0.143887f
c29 18 0 0.126108f
c30 11 0 0.0344814f
c31 7 0 0.313672f
c32 6 0 0.141771f
c33 4 0 0.0991455f
c34 3 0 0.282916f
r35 96 97 8
r36 92 96 0.3419
r37 92 93 8
r38 84 104 8
r39 78 97 0.0824444
r40 77 80 2.75745
r41 77 78 13.2552
r42 75 93 0.0622222
r43 74 75 13.2552
r44 72 74 8.41791
r45 68 100 8
r46 67 68 13.2552
r47 65 82 1.29764
r48 65 67 4.88298
r49 61 82 7.73958
r50 61 63 70.25
r51 57 82 7.73958
r52 57 59 23
r53 54 56 68
r54 53 80 4.73303
r55 53 56 57.25
r56 51 54 5.02856
r57 51 52 8.75
r58 48 71 7.73958
r59 48 50 99.25
r60 47 72 4.02967
r61 47 50 57.25
r62 45 88 8
r63 44 45 13.2552
r64 42 71 1.29764
r65 42 44 5.4383
r66 40 52 5.02856
r67 40 41 50.75
r68 39 41 5.02856
r69 38 39 8.75
r70 34 70 7.73958
r71 34 36 36
r72 30 70 7.73958
r73 30 32 57.25
r74 27 104 13.2552
r75 25 70 1.29764
r76 25 27 4.88298
r77 22 38 5.02856
r78 22 24 30
r79 18 71 7.73958
r80 18 20 44
r81 12 100 0.3926
r82 10 88 0.82082
r83 10 11 0.0275239
r84 9 84 0.2587
r85 8 11 0.00715299
r86 7 12 0.0363174
r87 7 8 0.48295
r88 5 11 0.0275239
r89 5 6 0.15015
r90 4 9 0.0363174
r91 3 6 0.0327853
r92 3 4 0.13585
.ends

.subckt PM_RCA%A0 20 23 32 36 50 56 59 63 105
c0 105 0 0.132226f
c1 100 0 0.389309f
c2 97 0 0.169403f
c3 92 0 0.37263f
c4 88 0 0.64711f
c5 84 0 0.269496f
c6 82 0 0.0418638f
c7 79 0 0.129939f
c8 76 0 0.231686f
c9 72 0 0.100783f
c10 71 0 0.0315578f
c11 70 0 0.0419218f
c12 68 0 0.0981166f
c13 67 0 0.0838506f
c14 63 0 0.0946967f
c15 59 0 0.235931f
c16 54 0 0.0229677f
c17 53 0 0.293849f
c18 52 0 0.0176337f
c19 47 0 0.352508f
c20 45 0 0.0616423f
c21 44 0 0.088574f
c22 41 0 0.021729f
c23 40 0 0.144019f
c24 39 0 0.0193089f
c25 36 0 0.191786f
c26 32 0 0.141984f
c27 25 0 0.0869126f
c28 21 0 0.126108f
c29 18 0 0.143887f
c30 11 0 0.0344814f
c31 7 0 0.313672f
c32 6 0 0.141771f
c33 4 0 0.0991455f
c34 3 0 0.282916f
r35 96 97 8
r36 92 96 0.3419
r37 92 93 8
r38 84 105 8
r39 80 97 0.0622222
r40 79 81 8.39552
r41 79 80 13.2552
r42 76 93 0.0824444
r43 75 76 13.2552
r44 72 75 2.7766
r45 68 100 8
r46 67 68 13.2552
r47 65 82 1.29764
r48 65 67 4.88298
r49 61 82 7.73958
r50 61 63 23
r51 57 82 7.73958
r52 57 59 70.25
r53 54 56 68
r54 53 72 4.73303
r55 53 56 57.25
r56 52 54 5.02856
r57 51 52 8.75
r58 48 71 7.73958
r59 48 50 99.25
r60 47 81 4.02967
r61 47 50 57.25
r62 45 88 8
r63 44 45 13.2552
r64 42 71 1.29764
r65 42 44 5.45745
r66 40 51 5.02856
r67 40 41 50.75
r68 38 41 5.02856
r69 38 39 8.75
r70 34 70 7.73958
r71 34 36 57.25
r72 30 70 7.73958
r73 30 32 36
r74 27 105 13.2552
r75 25 70 1.29764
r76 25 27 4.88298
r77 21 71 7.73958
r78 21 23 44
r79 18 39 5.02856
r80 18 20 30
r81 12 100 0.3926
r82 10 88 0.82095
r83 10 11 0.0275239
r84 9 84 0.2587
r85 8 11 0.00715299
r86 7 12 0.0363174
r87 7 8 0.48295
r88 6 11 0.0275239
r89 5 6 0.15015
r90 4 9 0.0363174
r91 3 5 0.0327853
r92 3 4 0.13585
.ends

.subckt PM_RCA%VDD 186 187 188 189 190 191 192 193 194 195 196 197 198 203 208
+ 213 218 223 228 233 238 243 248 253 258 263 268 273 278 283 288 293 298 303
+ 308 313 318 323 328 333 338 343 348 349 353 354 358 363 368 373 378 383 388
+ 393 398 399 403 404 408 413 418 423 428 433 438 443 448 453 458 463 468 473
+ 478 483 488 493 498 503 508 513 963
c0 1120 0 0.205677f
c1 1118 0 0.27146f
c2 1116 0 0.279548f
c3 1114 0 0.293356f
c4 1112 0 0.293356f
c5 1110 0 0.279548f
c6 1108 0 0.27146f
c7 1106 0 0.205677f
c8 1100 0 0.00480882f
c9 1098 0 0.00480882f
c10 1073 0 0.176031f
c11 1051 0 0.205737f
c12 1049 0 0.296124f
c13 1047 0 0.297447f
c14 1045 0 0.2494f
c15 1043 0 0.243987f
c16 1041 0 0.298286f
c17 1039 0 0.294424f
c18 1037 0 0.205737f
c19 987 0 0.016315f
c20 969 0 0.016315f
c21 963 0 0.0517061f
c22 961 0 0.00747803f
c23 953 0 0.0473993f
c24 951 0 0.0472597f
c25 943 0 0.00747803f
c26 941 0 0.00747803f
c27 933 0 0.0472597f
c28 931 0 0.0367221f
c29 923 0 0.00747803f
c30 913 0 0.016315f
c31 895 0 0.016315f
c32 889 0 0.24889f
c33 885 0 0.253242f
c34 880 0 0.142233f
c35 876 0 0.164064f
c36 866 0 0.0823039f
c37 863 0 0.0159626f
c38 855 0 0.205045f
c39 852 0 0.0159626f
c40 849 0 0.161194f
c41 845 0 0.0173706f
c42 841 0 0.0173706f
c43 838 0 0.161194f
c44 835 0 0.0159626f
c45 827 0 0.205045f
c46 824 0 0.0159626f
c47 821 0 0.0823039f
c48 813 0 0.0162194f
c49 812 0 0.00856654f
c50 807 0 0.142404f
c51 799 0 0.176031f
c52 788 0 0.0162194f
c53 787 0 0.00856654f
c54 782 0 0.142404f
c55 765 0 0.00100485f
c56 755 0 0.00100485f
c57 740 0 0.0199328f
c58 732 0 0.228612f
c59 729 0 0.0200791f
c60 726 0 0.159793f
c61 721 0 6.83416e-19
c62 715 0 0.159793f
c63 712 0 0.0101062f
c64 704 0 0.227777f
c65 701 0 0.0305722f
c66 698 0 0.0517061f
c67 693 0 6.83416e-19
c68 687 0 0.0517061f
c69 684 0 0.0199328f
c70 676 0 0.228612f
c71 673 0 0.0200791f
c72 670 0 0.159793f
c73 665 0 6.83416e-19
c74 659 0 0.159793f
c75 656 0 0.0101062f
c76 648 0 0.227777f
c77 645 0 0.0305722f
c78 642 0 0.0517061f
c79 637 0 6.83416e-19
c80 633 0 0.00100485f
c81 623 0 0.00100485f
c82 614 0 0.176031f
c83 613 0 0.00889001f
c84 605 0 0.142404f
c85 594 0 0.0159107f
c86 590 0 0.176031f
c87 589 0 0.00889001f
c88 584 0 0.142404f
c89 576 0 0.0159107f
c90 569 0 0.0823039f
c91 566 0 0.0159626f
c92 558 0 0.205045f
c93 555 0 0.0159626f
c94 552 0 0.161194f
c95 548 0 0.0173706f
c96 544 0 0.0173706f
c97 541 0 0.161194f
c98 538 0 0.0159626f
c99 530 0 0.205045f
c100 527 0 0.0159626f
c101 524 0 0.0823039f
c102 516 0 0.18072f
c103 511 0 0.18072f
c104 466 0 0.1765f
c105 461 0 0.1765f
c106 456 0 0.179956f
c107 451 0 0.179956f
c108 446 0 0.191055f
c109 443 0 0.00146253f
c110 441 0 0.191055f
c111 438 0 0.00146253f
c112 436 0 0.201034f
c113 435 0 6.89383e-19
c114 431 0 0.201034f
c115 430 0 6.89383e-19
c116 426 0 0.204987f
c117 423 0 0.00160268f
c118 421 0 0.204987f
c119 418 0 0.00160268f
c120 416 0 0.21618f
c121 415 0 6.2194e-19